56
0 1
H 0.3274866009 -2.7029690645 0.5569167740
C -0.3545831128 -1.8486990088 0.5005592277
O -1.6573621103 -2.4080959268 0.7631750342
C -2.6985124334 -2.1849900278 -0.0447596922
H -3.5679875439 -2.7518918612 0.2710429762
C -2.5989654645 -1.6086739881 -1.2960448330
H -3.5046948497 -1.5094567793 -1.8827045984
C -0.1952645149 -1.1906450704 -0.8931351401
H 0.1955353980 -1.9590183398 -1.5775012627
C -1.5082995143 -0.7782308248 -1.4956054016
H -1.4176302109 -0.1839650778 -2.3989554911
C -0.0014075741 -0.9168474710 1.6612896971
H -0.1789413462 -1.4523548335 2.5988024550
H -0.6276891772 -0.0207885840 1.6339475284
O 1.3776565566 -0.5863913848 1.5909005865
Si 1.8935891720 0.2043671668 0.2234334268
O 0.7113894679 -0.1134798324 -0.8959864850
C 3.5254116534 -0.6258873384 -0.2551715316
C 1.9012869443 2.0819249387 0.4357781827
O -1.9280791872 0.7328267197 -0.2878169042
C -3.1312303862 0.6112747849 0.1125565624
C -3.5423737529 -0.2182241992 1.1324171634
H -2.7772359277 -0.5369139718 1.8270526918
C -4.9789803422 -0.3486736707 1.5528558459
H -5.2923519991 0.4750936477 2.2059960298
H -5.1355181926 -1.2787802249 2.1085055895
H -5.6454703116 -0.3452183761 0.6866281118
O -4.1275990147 1.1672688041 -0.6435517678
C -3.7116700822 2.0610803730 -1.6684923427
H -3.0793085306 2.8568917840 -1.2651126265
H -4.6278104949 2.4857104691 -2.0806274061
H -3.1611343089 1.5429163506 -2.4589096660
C 3.1316432749 2.5725299981 1.2135162593
H 3.2185989647 2.0843525075 2.1909237599
H 3.0464100680 3.6524722084 1.3914516124
H 4.0637146023 2.4046289048 0.6650490174
C 0.6370309752 2.4739877507 1.2223515326
H 0.6436019455 2.0470308688 2.2313463472
H -0.2743830699 2.1481602204 0.7117620736
H 0.5975085278 3.5666217975 1.3250450088
C 1.8492005796 2.7731200660 -0.9376965027
H 1.8035937296 3.8614516193 -0.7987055708
H 0.9618798819 2.4664414882 -1.4995795448
H 2.7316315302 2.5568989604 -1.5485525294
C 4.4826550307 -0.6822493415 0.9473245583
H 4.0180731345 -1.1819759691 1.8032889137
H 4.8026884098 0.3124327049 1.2697640747
H 5.3848195101 -1.2464878666 0.6756542929
C 3.2037590145 -2.0696083707 -0.6806501127
H 2.7212716116 -2.6296424175 0.1276909322
H 4.1321134480 -2.5960583813 -0.9373958935
H 2.5546928933 -2.0979597466 -1.5625696848
C 4.2099176312 0.0859097069 -1.4317150742
H 4.5315726810 1.0983487077 -1.1693850501
H 3.5504759859 0.1561405828 -2.3044673997
H 5.1040992917 -0.4738930503 -1.7361091633
