20
0 1
C -0.0463145799 -2.1502487351 0.2054338375
H -0.8679916074 -1.9300135222 -0.4834650814
H -0.4554149171 -2.2302333913 1.2145827510
H 0.4428315797 -3.0777526141 -0.0878492712
C 0.9353828073 -1.0194403249 0.1092314698
O 0.4918637068 0.0774203794 0.7808564086
O 1.9774283590 -1.0358331599 -0.4871093662
C 1.2700012432 1.2849987704 0.6208925403
H 1.0157521724 1.8903096590 1.4942478751
H 2.3287565535 1.0232948477 0.6622387161
C 0.9165497617 1.9897418489 -0.6736032345
H 1.1968116059 1.3783384135 -1.5332577511
H 1.4536561214 2.9412499697 -0.7308564224
H -0.1572487876 2.1857009148 -0.7294325703
O -1.9468168387 0.0176972174 -1.6163892053
H -2.6990282909 -0.1587603877 -2.1873362050
H -2.3170865508 0.2174072624 -0.7404043867
O -2.3230598158 0.3879144720 1.1571150417
H -1.3565023606 0.3029965209 1.2089371716
H -2.5546987857 1.1653249699 1.6723624221
20
0 1
C -3.1303641473 -0.5708112348 0.0529376493
H -3.5345502285 -0.5113858948 -0.9604540274
H -3.4222127928 0.3415416904 0.5795913814
H -3.5302341865 -1.4422773827 0.5679877680
C -1.6289912389 -0.6629653826 -0.0073483564
O 1.5644151610 0.5851601892 -0.4974972821
O -0.9726874380 -1.5592801429 0.4617950543
C 2.2317104834 -0.2485836702 0.4592184256
H 3.1753464480 0.2274295996 0.7527477299
H 1.6066114419 -0.3627882293 1.3535909577
C 2.4859560455 -1.5964070878 -0.1795198313
H 1.5380530552 -2.0729495859 -0.4403423043
H 3.0178932872 -2.2486849689 0.5189628985
H 3.0918958223 -1.4827434578 -1.0826005185
O -1.0817748302 0.3794478875 -0.6534352901
H -0.0873124310 0.2724505454 -0.6625555032
H -0.6322082880 2.3370356488 0.0662195143
O 0.1325706633 2.8401710602 0.3793311887
H 1.4398029427 1.4734280293 -0.1235996486
H 0.0460346044 3.7220885968 0.0067703547
