8
0 2
C 0.7638162540 -0.3630919866 0.0301863074
C -0.0006497070 0.8699736167 -0.1727276650
C -0.7637043302 -0.3639040496 0.0305574088
H 1.2470443543 -0.8271502119 -0.8263307248
H 1.2943847267 -0.5059404051 0.9688497757
H -1.2936629099 -0.5073181212 0.9694791127
H -1.2468540566 -0.8284771461 -0.8257248014
H -0.0010227658 1.8133990118 0.3549960460
8
0 2
C 1.2214826273 -0.1974781770 -0.0001163898
C 0.0000257594 0.4472441751 0.0001716139
C -1.2214252321 -0.1974887436 0.0002093893
H 1.2773404173 -1.2817574336 -0.0003334962
H 2.1535403023 0.3551573630 -0.0001342784
H -2.1534877007 0.3551385874 0.0004399631
H -1.2772735955 -1.2817684853 0.0000074894
H 0.0000210978 1.5360089241 0.0003823746
