16

C -0.9311338777 -1.2108804574 -0.2582977229
C -1.4054944378 -0.0003888056 0.2635889320
C -0.9315047954 1.2103790114 -0.2582413292
C 0.9308332033 1.2108963779 0.2582441057
C 1.4054906099 0.0003928938 -0.2635918595
C 0.9318105782 -1.2103644877 0.2582993860
H -0.7928224465 -1.2823342290 -1.3343010165
H -1.2888755807 -2.1380897220 0.1853294962
H -1.8013141898 -0.0004795597 1.2780079708
H -1.2901149755 2.1373355206 0.1852426477
H -0.7933228455 1.2818139417 -1.3342673155
H 1.2900480279 -2.1373772983 -0.1853371734
H 0.7935605908 -1.2819003634 1.3343062083
H 1.8012941062 0.0005219278 -1.2780174626
H 0.7926214295 1.2822488165 1.3342710450
H 1.2889182016 2.1380537706 -0.1852434725
