37
0 1
C -0.8234853655 -0.0013124329 -0.2418444228
O -0.0167600893 0.0069157794 -1.3915743332
Mg 1.7716084038 -0.0595027468 -0.8886415676
Br 4.1179044542 -0.0695585291 -0.9521995842
C 0.1774139693 -0.0865290416 0.9338718801
C 0.7833327268 1.0742923793 1.4377366068
C 0.7197238092 -1.3278251997 1.3045239891
C 1.8687441694 0.9933560955 2.3077197505
H 0.3899553352 2.0456999694 1.1523151517
C 1.8047330343 -1.4019777277 2.1745411248
H 0.2739102055 -2.2387277624 0.9148454988
C 2.3790205656 -0.2429299213 2.6816966207
H 2.3198147470 1.9054907291 2.6852723929
H 2.2047197787 -2.3730402304 2.4486881094
H 3.2300168679 -0.3029277608 3.3517342456
C -1.6790857499 1.2738700975 -0.1690638428
C -2.3196799309 1.6627519967 1.0081808280
C -1.8562210381 2.0424830206 -1.3138737442
C -3.1163969964 2.7989241942 1.0410421362
H -2.1898172687 1.0827570165 1.9178109169
C -2.6597906040 3.1787430672 -1.2846154930
H -1.3562943441 1.7373158082 -2.2263195220
C -3.2909717151 3.5620039698 -0.1090229138
H -3.6020692483 3.0896617709 1.9678841253
H -2.7909241570 3.7670869585 -2.1880135054
H -3.9148766165 4.4501669624 -0.0854278778
C -1.7832320318 -1.2015539001 -0.2615173910
C -2.0662186490 -1.8233688936 -1.4726915060
C -2.4162216031 -1.6598918451 0.8943570267
C -2.9674864761 -2.8819333970 -1.5295595309
H -1.5687347763 -1.4661970782 -2.3674869011
C -3.3116154788 -2.7197173151 0.8405723467
H -2.2022351263 -1.1978530472 1.8544156842
C -3.5925379908 -3.3344183740 -0.3749814238
H -3.1803360923 -3.3555675201 -2.4834144789
H -3.7902555182 -3.0673114929 1.7513616305
H -4.2932854507 -4.1625019588 -0.4189890702
37
0 1
C -1.3742941377 0.5532468400 0.0456619739
O -0.4588677298 0.8747691752 -0.7210452791
Mg 1.2608516154 -0.1957476010 -1.0311856473
Br 0.3950627143 -2.2489658040 -1.9077076109
C 2.9464573390 0.8591511635 -0.3825676017
C 2.7939686875 2.1750985240 0.0881825670
C 4.2511681966 0.3408425190 -0.3256427811
C 3.8584075595 2.9261123917 0.5820860189
H 1.8098544798 2.6480540514 0.0681421636
C 5.3270491825 1.0754416418 0.1657668148
H 4.4464580437 -0.6722518721 -0.6753857274
C 5.1328067483 2.3739959186 0.6230212613
H 3.6945431742 3.9426672078 0.9313882168
H 6.3204063606 0.6347784240 0.1916147680
H 5.9691957972 2.9519977534 1.0058767861
C -2.7544937668 0.9925490846 -0.2410079142
C -3.7003146584 1.1361554475 0.7770759710
C -3.0971909168 1.2926934474 -1.5625880524
C -4.9791151246 1.5805372396 0.4731965060
H -3.4281845211 0.9218155740 1.8053796949
C -4.3809320139 1.7163766539 -1.8633449971
H -2.3512554472 1.1732095808 -2.3409471967
C -5.3194079269 1.8627188805 -0.8451977185
H -5.7110151021 1.7061762182 1.2642241743
H -4.6533092367 1.9338078368 -2.8908153736
H -6.3237496196 2.1999669421 -1.0820557941
C -1.0644328461 -0.2813610394 1.2318703007
C -1.8952051223 -1.3379638401 1.6090775161
C 0.1334496279 -0.0518778300 1.9155849727
C -1.5196130239 -2.1665619974 2.6560783796
H -2.8082911912 -1.5336267408 1.0563614477
C 0.4924827718 -0.8723676009 2.9750913388
H 0.7756511243 0.7779859715 1.6306409088
C -0.3315305307 -1.9312603375 3.3404939885
H -2.1497489853 -3.0054361755 2.9323242995
H 1.4186411926 -0.6868078912 3.5088151991
H -0.0436969253 -2.5814419105 4.1606304083
