10
0 1
C 0.6336528584 0.5997778136 0.8881897432
C -0.2289907827 -0.6023925790 0.3468377148
C -1.2812671376 0.0235216388 -0.2677756168
C 1.1756584570 -0.1472480223 -0.2025739275
H 0.2775128701 1.6216376341 0.7464708907
H -0.3180379791 -1.5195847464 0.9160030922
H -2.3160211124 -0.2104382687 -0.0323013233
H -1.0932992705 0.8183296387 -0.9792285932
H 1.2405781164 0.1966628175 -1.2385248898
H 1.8684706641 -0.9486597755 0.0498096260
