16
0 1
H -3.3696966429 0.3419905764 -0.8793333818
H 3.3695742266 -0.3425311669 -0.8795849873
C -2.7198343067 0.4095309461 0.0000582498
C -1.7233587091 -0.7114985069 0.0003358207
C -0.3899840187 -0.6195951325 0.0002169686
H -2.1534783099 -1.7118905150 0.0006739904
C 0.3899839741 0.6195950160 -0.0002187750
H -2.2536877941 1.3954012262 -0.0002778725
H 0.1690280261 -1.5513026275 0.0004683715
C 1.7233586648 0.7114983852 -0.0003383063
C 2.7198342551 -0.4095310748 -0.0000618565
H -0.1690280679 1.5513025127 -0.0004694253
H 2.2536877348 -1.3954013516 0.0002735861
H 2.1534782705 1.7118903912 -0.0006762317
H -3.3695745209 0.3425317205 0.8795812543
H 3.3696968351 -0.3419913978 0.8793296492
16
0 1
H 2.0325888024 0.4704235345 -1.2370204180
H -2.0320674195 0.4700143102 1.2377714693
C 1.8807543154 0.8538135063 -0.2224374638
C 0.6644093909 0.2037554727 0.4185798073
C 0.5651752509 -1.3105507991 0.3515041268
H 0.5051812592 0.6043091792 1.4277571071
C -0.5659195519 -1.3096135875 -0.3534473901
H 2.7884865852 0.6481352665 0.3542088883
H 1.2047917753 -2.0984022550 0.7387263206
C -0.6640764027 0.2048623823 -0.4182294905
C -1.8799654022 0.8548143146 0.2237624654
H -1.2060930788 -2.0964199672 -0.7418718895
H -2.7878443647 0.6506336165 -0.3531855993
H -0.5045467006 0.6068259537 -1.4267976744
H 1.7610390713 1.9406819384 -0.2818365616
H -1.7594919657 1.9415082383 0.2847837857
