16
0 1
H 1.7207565267 0.2825498498 -1.3089882579
H -1.7222427842 0.2798240566 1.3084667372
C 1.7791265421 0.7462571271 -0.3230154504
C 0.8685433078 0.0570661438 0.6734036316
C 0.4130518765 -1.2784248707 0.5526104663
H 1.0107281144 0.4643973075 1.6842565756
C -0.4124728064 -1.2784026365 -0.5529794239
H 2.8173027274 0.6785246915 0.0305308577
H 0.5999024665 -2.0766506579 1.2689783784
C -0.8685006703 0.0569241337 -0.6734079232
C -1.7794948760 0.7452306248 0.3232158536
H -0.5987675095 -2.0764671492 -1.2696716058
H -2.8173664344 0.6786876944 -0.0314423654
H -1.0107176533 0.4645680557 -1.6841399185
H 1.5485247423 1.8122301116 -0.4212089934
H -1.5483735619 1.8109162607 0.4233690994
