8

C       0.9886230003    -0.2339035425    -0.0005319306
C      -0.0300772522     0.6132029488    -0.0016219454
H      -2.5041718664    -1.2041361378     0.0028815334
H      -3.2310462837    -1.3682252666     0.0054723872
H       1.4300870084    -0.5942156521    -0.9250021053
H       1.4224761440    -0.6010488384     0.9248632211
H      -0.4726900916     0.9744509345     0.9224845544
H      -0.4628011171     0.9792098511    -0.9276202533
8

C      -0.7634989920    -0.0014085519     0.0034345985  
C       0.7630624004     0.0013931245     0.0009682510  
H      -1.1577822752    -0.5119163094     0.8869003874  
H       1.1602254339     0.5117040722     0.8832588376  
H      -1.1620378808     1.0172761069     0.0041875870  
H      -1.1607261987    -0.5117577486    -0.8788044272  
H       1.1615715562    -1.0173042967     0.0002200825  
H       1.1574397147     0.5119177240    -0.8824465814 
