8
0 1
C 1.1937825807 -0.2267556585 -0.0000127593
C -0.0996824035 0.5537619940 -0.0000958168
H 1.2604073041 -0.8591398112 0.8886251276
F -1.1807732770 -0.3270755991 0.0012410733
H 1.2595567010 -0.8607438268 -0.8875704732
H 2.0437442577 0.4624529074 -0.0010414744
H -0.1932535889 1.1833237159 0.8907929465
H -0.1941269075 1.1816895698 -0.8920454497
8
0 1
C 1.1557946107 -0.6505003609 0.0000066879
C 1.1305606157 0.6780685637 -0.0000178858
H -0.9832196265 -0.0246084630 0.0000381438
F -1.9159513738 -0.0404549551 0.0000127710
H 1.1710221754 -1.2187249824 -0.9255096100
H 1.1711069910 -1.2186677904 0.9255566549
H 1.1242802415 1.2464660619 0.9254955447
H 1.1241991478 1.2464051505 -0.9255682035
