16
0 1
C -1.3791661563 -1.7442856509 0.6796924710
C -0.9850158230 1.2936770409 0.5271041059
C -1.5097319310 0.4929101865 -0.3965607704
C -1.3827299361 -0.9760290254 -0.4063824251
C 2.4598943291 -0.2084237848 -0.0526109024
C 2.6451596670 1.0432236503 -0.4475607978
H -2.0614298199 0.9321552163 -1.2263012038
H -1.3033131077 -1.4446507681 -1.3862019183
H -1.2652464210 -2.8205972256 0.6074696672
H -1.1292832110 2.3684598181 0.4875667056
H -1.5065361609 -1.3221873176 1.6725672650
H -0.3818880894 0.9036085458 1.3423336280
H 1.4642641948 -0.6330673522 0.0371535454
H 1.8057332785 1.6877751386 -0.6919829895
H 3.2970031142 -0.8571174910 0.1906463071
H 3.6401817325 1.4684882203 -0.5431895550
16
0 1
C 0.3533931508 -0.0881365674 -1.3838707751
C 0.3533931510 -0.0881365673 1.3838707751
C -0.1822840240 -1.2975245621 0.6648547997
C -0.1822840242 -1.2975245621 -0.6648547996
C -0.2139185507 1.2079684806 -0.7736587210
C -0.2139185511 1.2079684805 0.7736587210
H -0.5533815350 -2.1466470733 1.2326015309
H -0.5533815353 -2.1466470733 -1.2326015307
H 0.1294630752 -0.1270470623 -2.4534862574
H 0.1294630757 -0.1270470622 2.4534862574
H 1.4492457393 -0.0776361472 -1.2966597007
H 1.4492457395 -0.0776361468 1.2966597003
H -1.2400957832 1.3303853575 -1.1335622314
H -1.2400957838 1.3303853565 1.1335622309
H 0.3525380196 2.0627247523 -1.1568020085
H 0.3525380185 2.0627247525 1.1568020089
