16
0 1
C 0.9459795374 1.1810560630 0.4196358794
C -0.0857689936 -1.4565337075 0.5827554306
C 0.9884995703 -1.1561141140 -0.2200510366
C 1.4985565333 0.1500248091 -0.3012677160
C -1.1644248419 1.1725480791 -0.3274763901
C -1.6619666076 -0.1106652733 -0.2515920015
H 1.3078313478 -1.8812784383 -0.9648963960
H 2.1926780401 0.3829734232 -1.1053694362
H 1.2793859145 2.2007942788 0.2511974422
H -0.5363190048 -2.4437683068 0.5393420677
H 0.4978340682 1.0016464032 1.3891509600
H -0.2534491044 -0.9187919820 1.5078212989
H -0.8582242072 1.5809604607 -1.2828133580
H -1.7476776799 -0.7133294144 -1.1475193618
H -1.4411091655 1.9042588243 0.4246642239
H -2.3314394449 -0.3822194753 0.5581656064
