14
0 1
C -2.3911790923 0.8283947069 0.0744376896
C -1.5417446946 -0.0247534556 -0.4809465985
C -0.6480200830 -0.9419860280 0.3020880308
O 0.7153425639 -0.8397830614 -0.1032705242
C 1.3382315654 0.3169184970 0.2493048365
C 2.5736100558 0.6036091578 -0.1373873179
H -2.4766013962 0.9180064130 1.1549132097
H -3.0367150472 1.4619285564 -0.5250671441
H -1.4593757538 -0.0976110408 -1.5640206228
H -0.9163055795 -1.9863605664 0.1206742130
H -0.7413186421 -0.7457068147 1.3785934958
H 3.0343472666 1.5277913381 0.1860862800
H 3.1370225564 -0.0719328357 -0.7712078117
H 0.7551500283 0.9882236399 0.8791291314
14
0 1
C -0.6828739581 -1.0791414714 -0.1894223216
C -1.4722210387 0.0144114930 0.4744767768
C -2.1917968799 0.9242970853 -0.1686008657
O 2.2014018614 0.9746890041 0.2096538240
C 1.4362763835 0.2742209410 -0.3986755746
C 0.8134074547 -0.9897582181 0.1415021452
H -0.8291111973 -1.0313385923 -1.2749019286
H -1.0552862713 -2.0562590198 0.1383371072
H -1.4166450505 0.0507305028 1.5626695855
H -2.7336716550 1.6994092767 0.3632927462
H -2.2664829074 0.9244351531 -1.2534944650
H 1.3425517301 -1.8316391492 -0.3249694416
H 0.9973830692 -1.0352255713 1.2186202751
H 1.1479588163 0.5309759185 -1.4433011270
