8
0 1
N 0.6552143083 -0.0000000000 1.1861953320
N -0.6552143084 -0.0000000000 1.1861953320
C 1.2584630015 -0.0000000000 -0.0000128072
C -1.2584630015 0.0000000000 -0.0000128072
N 0.6552140965 -0.0000000000 -1.1862213197
N -0.6552140965 -0.0000000000 -1.1862213197
H 2.3434916704 0.0000000000 -0.0000129564
H -2.3434916704 0.0000000000 -0.0000129564
8
0 1
N 0.5425509829 -0.8775823022 -0.0000000000
N -0.5472566187 -0.8993413143 -0.0000000000
C 4.0571108949 0.0753505520 0.0000000000
C -4.0558938733 0.0742784863 -0.0000000000
N 5.0470740843 0.6524586991 -0.0000000001
N -5.0206633237 0.6922516720 0.0000000000
H 3.1275883738 -0.4563551216 0.0000000001
H -3.1505111264 -0.4969245971 -0.0000000000
