5
0 1
H 1.3946540939 -0.2451020439 0.0000000004
N 2.3932779258 -0.0748810330 0.0000000003
C 3.5400092551 0.1219295670 -0.0000000002
C -0.6917914422 -0.5953193770 -0.0000000008
S -2.1857105161 -0.8394877123 0.0000000003
5
0 1
H 2.9194918727 -0.7710747654 -0.0000000000
N 2.4198118809 0.1225006066 -0.0000000000
C 1.1899234573 -0.0138802413 0.0000000000
C -0.0921402358 0.0296326872 0.0000000000
S -1.6544756644 -0.0099455119 -0.0000000000
