10
0 1
C 0.7264686230 0.5479309852 0.1251030835
C -0.7264804931 0.5478113025 -0.1250957680
C 1.5319201814 -0.4873237529 -0.0940609252
C -1.5317898009 -0.4875187892 0.0942347245
H 1.1502564180 1.4791265634 0.4981528691
H -1.1503961060 1.4788889440 -0.4982946851
H 2.5929379798 -0.4329071461 0.1258551374
H 1.1569167389 -1.4162264366 -0.5144590683
H -2.5928151040 -0.4332832014 -0.1256896398
H -1.1566582676 -1.4163020757 0.5147821789
10
0 1
C -0.6111339168 -0.4033213022 0.0000378140
C 0.6111348526 0.4033251059 -0.0000061674
C -1.8382731721 0.1117705153 0.0000201708
C 1.8382741063 -0.1117667103 0.0000130958
H -0.4778599654 -1.4842325523 0.0000875511
H 0.4778608973 1.4842363558 -0.0000572139
H -2.7203082265 -0.5194336694 0.0000542883
H -1.9977344774 1.1868817509 -0.0000292216
H 2.7203091607 0.5194374737 -0.0000210059
H 1.9977354124 -1.1868779452 0.0000639789
