11
0 1
C 2.0044833103 -0.4761084734 0.0098326364
C 1.0288761604 0.6932901841 -0.0017872420
Si -1.7312373679 -0.1470070917 0.1155194921
H 2.3623473092 -0.6858566696 1.0212084675
H 1.5347386290 -1.3839100746 -0.3776837113
H 2.8743465254 -0.2565272176 -0.6153563381
H 1.4709748836 1.6133938796 0.3897738878
H 0.6474755058 0.9008541771 -1.0022821849
H -1.1741097608 -0.9216416986 -1.0656563688
H 0.1860257421 0.4854003883 0.6987980749
H -1.9160080492 1.1143342129 -0.7089934217
11
0 1
C 1.7025580911 -0.3473424316 0.0022825849
C 0.5568307560 0.6730794137 -0.0003441744
Si -1.1439693307 -0.1240296215 -0.0019107675
H 1.6575825352 -0.9929436868 0.8852031747
H 1.6600485162 -0.9947337431 -0.8794498499
H 2.6791016726 0.1457427084 0.0031464007
H 0.6313671948 1.3289881078 0.8752248002
H 0.6338139015 1.3272321037 -0.8770135764
H -1.3094364077 -0.9822833778 -1.2057301504
H -1.3125585037 -0.9802720205 1.2029069749
H -2.2159167463 0.9060005406 -0.0041590109
