7
0 1
O 1.8130655207 -0.0485660596 0.0751230064
C 0.6759734586 0.3315783393 -0.0436749739
N -0.3973951687 -0.5241144136 -0.1384402125
O -1.6430171549 0.0353985711 0.1461455897
H 0.3720157996 1.3892622508 -0.1363871572
H -2.1335287359 -0.0220521654 -0.6823609298
H -0.2810786412 -1.4373116730 0.2849627084
7
0 1
O 1.7740995785 -0.0247528226 -0.0000170011
C 0.4911386326 0.3785888300 0.0000093755
N -0.4560165627 -0.4580488321 0.0000437880
O -1.6957267450 0.1953501165 0.0000661475
H 0.3633119474 1.4585911727 -0.0000014943
H -2.3202119205 -0.5360968696 0.0000913975
H 1.7782676551 -0.9924967890 -0.0000049260
