9
0 1
C 2.3400287833 0.6600813099 -0.0005313673
H 3.2654368139 1.2284081063 -0.0016332525
H 1.4155874609 1.2298218263 -0.0003647784
C 2.3392878265 -0.6647464464 0.0005617590
H 1.4142176047 -1.2334947932 0.0016664657
H 3.2640589391 -1.2341100155 0.0003942811
C -2.1290481320 0.0042331607 -0.0004026211
F -1.3299775523 1.0324725321 0.0006406660
F -1.3350223253 -1.0278834799 -0.0004265428
9
0 1
C 1.0746437631 -0.0005944970 -0.7704964324
H 1.3541025906 0.9190428044 -1.2707499477
H 1.3541064609 -0.9210376017 -1.2692642403
C 1.0746350487 0.0006427716 0.7704962034
H 1.3541039493 -0.9189897342 1.2707528889
H 1.3540763501 0.9210906501 1.2692671764
C -0.1798549336 0.0000134705 -0.0000071942
F -0.9607002121 -1.1010983550 0.0008608166
F -0.9607187592 1.1011121489 -0.0008839739
