9
0 1
C -1.6334944227 0.4307777043 -0.3991180216
H -1.7632079766 0.1284964189 -1.4316097487
H -1.6329509787 1.4927401271 -0.1835400580
C -1.3175585683 -0.4862307370 0.5703849351
H -1.3402898375 -0.2034318548 1.6176212978
H -1.4667784923 -1.5455034776 0.3897138562
C 0.4774335434 -0.3567443752 0.2466367281
F 0.9708879857 0.8677303108 0.4461598205
F 0.8282684014 -0.6913287450 -0.9972925446
