5
0 1
C 0.7639060502 0.1919210860 0.0000045125
N -0.5269112781 -0.0240600915 -0.0000634353
H 1.2421236565 -0.8081495500 0.0000114260
H -0.9788699273 -0.9350704180 -0.0001021199
H -1.1638040533 0.7622243778 -0.0000818565
5
0 1
C 0.8514582376 -0.3733542065 -0.0251639626
N -0.2862773132 -0.2410294334 -0.0165310760
H 1.9142338077 -0.4961900086 -0.0340977283
H -3.1327452275 -0.2175857528 0.0237033101
H -3.8758617106 -0.2742725575 0.0500961804
