5
0 1
H 0.9788492681 -0.9351528970 0.0000856220
N 0.5269407364 -0.0241177168 0.0000303621
C -0.7638646801 0.1919344790 -0.0000443701
H 1.1638769449 0.7621316049 0.0000370564
H -1.2421372240 -0.8081098971 -0.0000356660
5
0 1
H 1.1626453176 -0.7380959957 0.0000129974
N 0.6660974008 0.1546112796 0.0000111722
C -0.5840215769 -0.0285836675 -0.0000177905
H -1.2449529019 0.8409283597 -0.0000232821
H -1.0678986925 -1.0122857521 -0.0000384412
