11
0 1
C -0.9745145573 -0.6902337329 -0.0892849138
H -1.8860596369 -1.2535048335 -0.2373194000
H -1.1535507491 0.0665635758 0.9576924565
C 0.3474462404 -1.1627198193 -0.0343698048
H 0.6345865109 -2.2040108491 0.0219452657
C 1.2059917956 -0.0612184966 -0.0119732891
H 2.2842266033 -0.1167704791 0.0812767614
C -0.8972961496 0.7902148858 -0.0965398687
H -1.7455851141 1.4434952956 -0.2506162708
C 0.4665980748 1.1232413700 -0.0456997261
H 0.8601519966 2.1296790411 0.0004468078
