13
0 1
C -1.7082332015 1.0295403570 -0.0365017740
H -2.1192605395 1.8346847321 -0.6380582601
C -0.6864889360 1.3101776440 0.8561365253
H -0.3255688100 2.3295374937 0.9599915394
H -0.4962341152 0.6740174631 1.7157905194
C -1.9675386778 -0.2891474047 -0.4244771335
C -1.2058033015 -1.3313402821 0.0790639130
H -1.2369514955 -2.3045310102 -0.4027402156
H -2.5697428880 -0.4568493810 -1.3123267019
H -0.8953350343 -1.3528691159 1.1197613645
S 0.8393134750 -0.1711770720 -0.1908516147
O 1.1169088140 0.1735442706 -1.5544184267
O 1.9240703571 -0.6300171434 0.6306582194
