27
-1 1
C 0.1805033284 0.9775677437 0.0734206422
C 0.6011598609 1.8798369178 1.1488791423
O -0.4182019659 2.7025798333 0.7382242064
H 0.4554923846 1.2907066944 -0.9247711524
H 0.4740650097 1.4351297129 2.1597511978
C -1.0564849940 0.1589108234 0.2021322407
C -1.3707592551 -0.7601283507 -0.7998138973
C -1.9076657662 0.2740025425 1.3009738433
C -2.5038048223 -1.5580822277 -0.6987165505
H -0.7018794448 -0.8452497521 -1.6520245805
C -3.0375608443 -0.5279125978 1.4033560899
H -1.6993237541 1.0371528767 2.0419794818
C -3.3406725464 -1.4507303344 0.4069378955
H -2.7326828713 -2.2698897476 -1.4880678621
H -3.6935795823 -0.4233460002 2.2642243494
H -4.2277696313 -2.0740741065 0.4877333693
C 2.0079491072 2.4520626176 1.0340158924
H 2.1086615650 3.2992499358 1.7223822326
H 2.7660633214 1.6977795026 1.2730531548
H 2.1738286908 2.8178050868 0.0150901093
O 1.4530729243 -0.4666103483 0.0695760418
C 1.9884273630 -0.7751217050 -1.0524558021
O 1.6290558972 -0.3995961830 -2.1732299649
C 3.2019597459 -1.6989017728 -0.9201762312
H 2.9769057647 -2.5180957797 -0.2323844610
H 3.4927980806 -2.0886404561 -1.8974334975
H 4.0342404399 -1.1290115729 -0.4946157739
