7
0 1
C 1.1108196950 -0.1710974728 0.0694277434
C -0.1062967948 0.5325857606 -0.0483436032
O -1.0896385009 -0.2767595386 0.0169653772
H 1.2756077690 -0.8219617989 -0.7921774538
H 2.0151688949 0.2937475996 0.4506218420
H -0.3039798720 1.6038254233 -0.1436389283
H -0.0944998256 -1.0060335014 0.3536743802
