9
0 1
C 2.0133934947 -0.6046546883 -0.0067646512
C 1.8821601223 0.7142071857 0.0078476600
O -1.4034836017 1.0501493725 -0.0527272841
N -1.3953929172 -0.1290282466 -0.0002673107
N -1.3867940099 -1.2439412531 0.0495061127
H 2.0677225391 -1.1616063005 -0.9377225057
H 2.0740535692 -1.1817200656 0.9114758688
H 1.8213117931 1.2917666537 -0.9098951126
H 1.8284724983 1.2714791817 0.9385501295
9
0 1
C -0.7982443155 -0.8731455206 0.0000000000
C -0.9851024916 0.6410768045 -0.0000000000
O 0.3652076169 1.1340358333 0.0000000000
N 1.2374022297 0.0449087150 -0.0000000000
N 0.6694361439 -1.0308242473 -0.0000000000
H -1.1940779563 -1.3747332277 0.8852929377
H -1.1940779563 -1.3747332277 -0.8852929377
H -1.4897008040 1.0148331783 0.8934647799
H -1.4897008040 1.0148331783 -0.8934647800
