10
0 1
C -0.0001046091 -0.7819537483 -0.6990154041
C 0.0001046091 0.7819537483 -0.6990154041
C 0.0000888822 0.6669035996 0.8127269464
C -0.0000888822 -0.6669035996 0.8127269464
H -0.8903631503 -1.2401657488 -1.1401021791
H 0.8900307526 -1.2404044181 -1.1401026653
H -0.8900307526 1.2404044181 -1.1401026653
H 0.8903631503 1.2401657488 -1.1401021791
H 0.0001883477 1.4133883287 1.6004555657
H -0.0001883477 -1.4133883287 1.6004555657
10
0 1
C 1.5318526629 -0.0941825840 -0.4873405956
C -1.5318526629 0.0941825840 -0.4873405956
C -0.7264775890 -0.1250818747 0.5479523852
C 0.7264775890 0.1250818747 0.5479523852
H 1.1567750439 -0.5146442941 -1.4161845370
H 2.5928795164 0.1257119287 -0.4330140482
H -2.5928795164 -0.1257119287 -0.4330140482
H -1.1567750439 0.5146442941 -1.4161845370
H -1.1503385295 -0.4981938800 1.4790897279
H 1.1503385295 0.4981938800 1.4790897279
